78
model_4_predictions_casp13_100_predicted_reconstructed_6qek
D	3.274791872303034	4.767133727875355	-10.332269925430046
I	4.849422772069012	5.059523750981742	-10.442499614763767
Y	6.883503973971568	5.5977365764008775	-7.006467719728493
G	9.300008756013018	3.8878609877554955	-8.607728619077125
D	10.364240843416066	3.291831644827468	-11.442562222663769
E	11.13775479468216	2.8611283308362814	-10.395908883094544
I	12.07666772886066	1.7697389020801237	-6.278000009470176
T	13.922119094623326	0.38552106975717826	-9.076125836101387
A	15.173433376307289	0.4302049088067972	-11.53366389700416
V	14.95644012244958	0.14526908014294193	-8.314996586966753
V	16.78381132048161	-1.2728025443745423	-5.962856220716997
S	18.701846015928197	-1.844710358936422	-9.346900519083379
K	19.46712816019235	-2.9041497073456912	-11.191818822390642
I	21.1200522598509	-2.902906405621153	-6.385738785094601
E	24.219808706153128	-5.433384123097568	-7.493810297835324
N	25.3844351533862	-7.054076259489172	-4.50610608988568
V	22.00830999498729	-5.996555023004067	-2.8972359270918098
K	19.751336673548984	-8.062286694531599	-3.8312012698107947
G	18.473803076280042	-7.278873133737372	-3.93708981318819
I	15.62088402521556	-5.452534398973276	-3.731880302398875
S	13.970213318250263	-6.259628565122492	-4.001611283029089
Q	10.307974924935145	-5.502631584495482	-2.9952435862683533
L	8.592890896177485	-2.9695327533562756	-1.7556370835399038
K	5.511082238751101	-1.2983963213846481	-1.2301635836548837
T	2.965998154553464	1.3218747251026093	-0.3042791332811491
R	1.016016351995642	2.6086552856770195	0.9245121138029677
H	-1.3210329483461152	4.861735564501004	1.4210848368947115
I	-2.7779601632660302	6.935009912362126	3.214627536577389
G	-4.426458501763179	9.369217106890002	3.6976366486163132
Q	-3.9147539520250625	9.067423777970912	2.1060465815685787
K	-1.7090086935316755	9.401246197149286	0.22412390049713693
I	-0.16626914135687798	8.813583790095455	0.8350592117686164
W	2.182375516519212	7.063552356210245	0.9134961288388292
A	5.554184746427602	5.323826626571114	1.2017481982004274
E	7.99509819819705	2.328483468413816	2.5476770801430706
L	10.620128188774967	0.15644693457214998	2.3537428608359097
N	13.44605141392294	-1.4952572880076564	2.662675247648402
I	16.715538605694412	-2.645454663722757	2.3307677150397668
L	18.230631996341664	-5.217567922507296	3.262276367021899
V	22.40078564168213	-5.459791815452553	3.4947075003726256
D	24.67326512553517	-8.20573617260335	4.817273936175958
P	26.56014065294743	-9.392929397626272	5.941769049788467
D	28.58885137449586	-7.20134784707704	5.957311772877816
S	28.276158257263234	-3.5461984864452245	4.51488391724642
T	29.23376154633941	-2.7337600218554985	5.470584593556572
I	26.861275822390994	-1.1934351308674707	6.793899695938846
V	28.41901725355178	1.6961183088924945	5.27860356434188
Q	28.54714688150341	1.8989579467621347	2.225914110732516
G	25.45094719506616	0.8121201458371556	3.063121768624756
E	24.074036009462088	2.7320196692194676	5.5597251028007975
T	25.099114283687104	5.067606165845646	3.256873846068466
I	23.94512184798625	4.430861708460412	0.9380332748572204
A	20.956179762873756	4.268799212976388	2.5549133114058846
S	21.427066192347105	7.689919928533186	3.61098702589792
R	21.63175942943795	8.24187251129948	0.08090576518831905
V	19.321871621206515	6.9920998715742915	-0.4393082328873628
K	17.378704012771493	8.099742166791295	1.0818082378719218
K	18.168044949996503	11.25826793917819	0.16050145722443077
A	16.955596297400575	10.797204497995615	-3.649389218509137
L	14.55352144038888	10.275530977205245	-2.925272546463908
T	13.546083205001034	12.537532645798295	-0.724772127124684
E	14.25664866301511	15.537986580511001	-3.655888790859645
Q	13.027642330272572	14.445578971112882	-6.619360048413645
I	11.321364932007707	14.527470187943491	-3.663144729810033
R	9.185546330483206	16.935442564809698	-2.9449986936291612
D	6.657380705664949	15.807810294910919	-1.906518504380449
I	7.656776376732443	13.22166936723761	-0.18423761143171904
E	7.049026682776569	12.462305903349531	1.6842487848975285
R	8.396600953996048	9.715172976980254	3.8691361124048966
V	11.021144379932222	7.025777047791131	4.6456408200995725
V	12.370752105891953	4.777249603862332	6.587721138661669
V	14.064430079487908	1.4707259704950517	6.722410281830008
H	14.72343893710925	-1.1347643718173641	7.875982936493955
F	14.787188237899796	-4.410929551512311	9.225841101146159
E	15.45044686132714	-8.125689948852907	8.870727494985806
P	16.73726765652867	-9.945168003895484	7.067616662333879
A	17.40520203470603	-12.677466964989138	6.377995848293514
R	17.23728837243679	-14.75083532195459	5.753052252614539
