268
model_4_predictions_casp13_100_predicted_reconstructed_5z82
S	13.284572745937906	3.166066337181743	-4.16849770798107
I	12.891070967834388	3.9667970711344083	-4.692623162354767
G	13.73562571174346	5.973135147132606	-6.342192638222054
L	13.811236408940772	7.002405966195223	-5.555251084002501
A	14.145803472416313	6.733475755541633	-5.26800830940007
H	15.440627609222677	7.83283835862963	-6.694141731469596
N	16.584209530327676	8.563814239639441	-7.334812052086436
V	18.7360357229749	10.135563847268587	-8.032699663709298
T	20.70462316401848	10.75965565181684	-7.316514040231653
I	23.477805846581695	13.56419437235674	-7.138643850794908
L	26.638342908352662	16.327956971165086	-5.304715167344925
G	29.372736147914743	19.254494111393818	-3.51740579437622
S	29.273784821297262	20.013179101844106	-0.4229646524470798
G	27.661350435177496	22.00843495884394	1.4897195504833132
E	25.96017734138119	24.79655523572801	2.958507487545207
T	22.45345406877955	27.53371846204	2.2963593343112922
T	20.560064355611132	27.267370553529076	-0.25736311245889
V	19.10342821424088	25.623764424577136	-2.9832844044497584
V	18.136983529584647	24.622104565777335	-6.0882072079285905
L	17.166969705742037	24.060312289053744	-9.328456489728651
G	15.280088803604412	22.888099604010563	-11.836947174706852
H	14.412462481951131	20.8870026393953	-15.509076993639523
G	13.290506304085168	19.37250355436908	-18.709729116089875
Y	12.351502671406585	17.585227228616567	-22.07893086717342
G	12.813216269388684	16.616737688677087	-23.651096865576285
T	14.710877940656394	16.276011451702487	-20.365719822319218
D	17.584056077962593	15.957390982994038	-18.02001011026829
Q	19.75586319427321	16.674973139408063	-14.616246600666468
S	22.41404126991106	18.00676780753519	-15.757325181125875
V	21.01523706689987	21.344605110130686	-16.895091601139963
W	21.725622374471854	21.03612395063893	-13.118665274990425
K	25.657297104074036	20.834853469251126	-13.649513654323734
L	26.051415730121292	25.49017662143961	-16.5602052957883
L	25.39303394652888	26.483767047199006	-13.310649853469743
V	26.81786621511544	24.2288445184217	-10.513097934084938
P	30.319099538764625	25.013640210004446	-11.124297119486446
Y	28.87361905988543	27.3282946769724	-10.40801745351918
L	27.678109688134544	26.942720375065434	-8.11867210795479
V	30.467428058211997	23.9199608873701	-5.762069541316819
D	32.937918377247684	27.411780452776718	-5.429179522893454
D	30.494593088577364	28.810264344039865	-3.1942224410184714
Y	27.17599508996782	26.128140106519055	-2.840986401074293
K	25.91834937139535	23.528779337929663	-2.1581922420251605
V	23.903382338539984	21.05229954758574	-4.540060706218371
L	22.03231599985789	19.462899212079787	-5.252045162639277
L	19.98282800298283	16.917379135877564	-7.813520830191358
Y	17.229801268282884	14.908156323401116	-9.056977552973194
D	15.10294590749214	12.94424682659264	-11.429578577171752
H	13.198240078236203	11.979471081113715	-12.731913378749201
M	12.462439338920397	9.627879665589491	-14.93455527788968
G	13.489344160654989	7.708852671412977	-15.771360606104874
A	15.024069091902767	9.972008660715192	-16.590272786007308
G	16.350007679476743	9.98434359741579	-18.453328317679453
T	16.180033734728948	6.768782732785919	-17.700298238084216
T	13.415190570805027	7.458677759313627	-15.311206137775772
N	10.325511578406106	4.366080829593141	-15.343253728489518
P	7.851318614638238	3.5978402594899492	-15.940024975354556
D	5.678447574438225	1.996599589008273	-15.255993403024474
Y	6.648806339808618	3.649383102228132	-14.255832346267562
F	4.33295949981065	6.595290677059328	-14.29428290714514
D	1.474028288342618	7.644512939146061	-14.097441195063238
F	-0.1351828049949244	10.229180972074152	-13.957604330550556
D	-1.094758947794526	9.554210145463454	-12.407612778418546
R	0.7588022951356468	10.538612909962145	-12.45139980354071
Y	0.9580320022870179	14.346104985829413	-12.27215178235719
S	-0.28710264422248777	13.656145402844277	-12.683244924563013
S	0.870685788540241	14.674841251856424	-11.52148079408009
L	2.7918111712574483	18.2382711359129	-10.212708618774494
E	2.4568898621432407	17.420503763432407	-7.362508869856626
G	4.4200102467477755	13.370486904366276	-7.329627938244303
Y	6.541362099916552	15.559535872843233	-7.708381092661112
S	6.527245491778331	17.98186609957002	-5.4231265365451975
Y	6.107838507830812	14.821864495206572	-3.535717150512866
D	9.090033620116682	13.700162393053267	-4.82522173947989
L	11.182280624754917	17.09556298001231	-3.9924480139839336
I	9.911411496668647	17.406418266569474	-0.9988004919352456
A	11.160266883703414	14.42484843468325	-0.2616609407975172
I	14.08782331538778	14.818658672865494	-1.335893371240326
L	14.662663174905004	18.17522480049103	0.5203366492969916
E	14.79723463194765	16.80709688107	3.7890400437386216
E	15.998312476609598	14.146017570703869	3.2094913628368484
F	18.66923440978219	15.906442134281443	3.0103804971413677
Q	18.667674875867508	17.115386691163792	5.226207829009921
V	17.944473787304013	20.78573952095975	3.4284465340810844
S	17.98944763764233	24.52839357220113	3.8781106913563033
K	18.13096266138603	26.744339901577295	2.801826590099042
C	17.28928374074719	26.732514926253028	-0.009378312036927738
I	17.517140387156445	27.691402584181716	-3.1019857317837083
Y	16.794924552546334	27.199138418087266	-5.986562894205429
V	16.26272303187763	26.877997480233965	-9.255105664036485
G	14.70930290459478	25.859309819026798	-12.71041907792164
H	14.135927658560869	26.085175064096997	-15.102430908219697
S	11.848962569753777	24.850045275467043	-17.291390917496106
M	9.67005550876399	24.179249576637567	-15.905184020213618
S	11.146082020287599	24.819873061867625	-12.864450897889014
S	10.540336353556429	27.770407681314563	-12.641262563460758
M	7.86313658604894	26.641924954684043	-12.149659257060854
A	8.115946443021837	24.197369152657526	-10.271422893178066
A	10.224765282689361	26.372677256383287	-8.157383642078196
A	7.771678085214043	28.725308721695438	-8.149488435489328
V	6.559327198902581	26.724516428540248	-7.0142111438584305
A	8.436249624392996	24.752403436343972	-4.218648408283647
S	7.964005803072896	28.948665026006807	-3.5628489289789016
I	5.192971771749792	29.105120675751277	-3.3167838228239095
F	4.398093419027823	26.45710222186861	-1.5805320773691491
R	7.272635066981067	26.569127068556487	0.4178113792003977
P	8.102494121647084	29.77383022364201	0.9616423735288446
D	8.871583503262348	30.34438760101395	3.5257742014729896
L	11.640137554826683	28.83038429493309	1.0903387312443247
F	12.66128369991171	30.589923996451855	-1.113414039887605
H	14.66801111779535	32.586054012987375	-0.750467101727482
K	15.291551470348422	33.5619149011677	-4.029734828841637
L	14.64743708472832	32.61721508234356	-6.9895939573760195
V	14.8200577885064	32.10767027930286	-9.86716768306633
M	14.506967341158077	31.506563833410038	-13.296456337981901
I	14.385870562216821	31.28529992602789	-16.422290371839406
S	12.614145008242392	31.653818810232995	-19.012363639837915
P	8.68256487720919	30.72023342195114	-17.869270881456032
T	6.356167730035103	30.303830710831498	-18.126066269723488
P	3.0943260776491606	30.218887280842424	-18.48155206520547
R	1.0977230862219773	30.465951220985588	-19.73391344653019
L	0.8898248331803273	31.20076237874305	-20.86915361873318
I	-2.1009496742206313	33.00146170079876	-23.18289093534261
N	-4.081818900368749	34.38743736395332	-25.429753605018767
T	-5.446458347536602	35.99592923890857	-27.34728702943783
E	-6.474190786591084	36.63496301204048	-29.820174157724654
E	-5.953473629307759	36.588621733672355	-31.442479162226682
Y	-2.681812494502733	33.573881479559674	-29.73521875875792
Y	-1.618106373509061	32.45193864789463	-29.84344937456681
G	-1.1878251786440064	30.857758468565734	-29.46411551603439
G	0.635439113117668	28.908229373338045	-29.039320276456728
F	0.2506518518960199	27.4650416790459	-30.33437619803029
E	0.6685138502337526	26.068270269678862	-33.65050010082979
Q	1.6088539129150021	23.943653420911915	-34.26408137436388
K	1.544512592815245	23.259580350680498	-34.53826066013814
V	2.4035765590935867	21.908165405832136	-33.542899735897464
M	2.9544625901075907	19.376398777151095	-31.90136758214436
D	1.5092437795881999	19.451417476340055	-33.29972949345801
E	1.801985759035741	19.097578235718057	-34.31992216568864
T	3.2694794145639463	18.36960166218809	-32.84634383563524
L	2.4921709366395284	15.89531077732338	-31.65476181193572
R	0.888018979183073	14.775742105642617	-33.52206349280958
S	2.328639338199194	15.78899188843023	-34.98942892582273
L	4.141207164942411	14.415162736980013	-33.78660433435664
D	4.153096517431388	13.228159958385623	-34.89495571352709
E	4.65694750705061	12.739283174187229	-36.6572660135943
N	8.121683826258597	14.631435101985609	-35.68977877800879
F	9.897629894407192	15.528738394023948	-32.62869667811633
K	11.059386556010281	15.82801608096645	-35.883425463481906
S	13.623263405581	18.09840749126063	-35.96645316072971
L	13.320737915760043	18.94701895519607	-32.46827244441645
S	12.584188735914067	19.533037931876635	-31.274171839414258
L	15.924069981030287	20.7319933959454	-33.55462078650084
G	18.985107062120047	23.279642512553803	-32.573231716614416
T	16.402013007212194	23.912349124341542	-28.953453302880707
A	16.076333374979814	24.042225978402765	-29.438613504725584
P	20.271843994894134	25.473207514494575	-30.658537478845908
L	20.836907580757877	26.99213568534493	-28.019646311533663
L	19.149753535690046	26.3701638911128	-26.01349247182543
L	21.534259761326297	27.625286359486022	-27.579588239159655
A	26.13212499253946	28.568902567014074	-29.595946028079855
C	26.644803478467114	29.732935739703674	-30.119364675297692
D	26.63028474072904	28.94449363463826	-31.31296748797441
L	26.132087622715645	27.385675025642225	-30.40250819689106
E	27.219563466288086	25.54645045894239	-31.46886314614551
S	26.739385644849825	23.439698796537797	-29.891531337017348
A	25.88572444075242	21.43666686188176	-29.087535576483262
A	23.368970665417628	20.310217333747065	-26.69516110097055
M	20.18166642281823	19.099568270473753	-26.2921480152992
Q	22.331792718739415	17.065322607007396	-26.623114739005697
E	20.848635650466765	15.460951722848224	-25.568311117076036
Y	16.438768772362533	14.91634522748412	-22.955186782314364
C	15.832574585269585	14.01072441321106	-22.895227311780836
R	18.36038834208275	11.80246348894317	-23.415104326483753
T	15.023815502876873	10.61716684159229	-21.743508174025997
L	11.829214269942044	11.415553144080832	-21.780588234152233
F	12.807651182104465	10.67891919353147	-23.04279014140417
N	13.104872866002982	8.069739992147355	-22.578177580250653
M	9.06859624202032	9.520962535889007	-21.587400298321285
R	6.787187125135504	8.446796342135851	-21.98219232673448
P	4.701710517703685	9.295473973086102	-21.77066812493236
D	3.7411627657815156	8.677495756728199	-20.299153207752564
I	4.656406209399529	11.428601443128576	-19.19254103554826
A	4.393938870010244	13.777265507822264	-20.111387123862755
C	3.1222960276919896	13.933358217169884	-20.166965131369246
C	3.2072766841710774	13.05430446811177	-17.979387136594603
I	4.365029753319925	15.966895696626656	-17.42909010959273
T	3.235167150852444	17.935443361834885	-17.930670942643815
R	1.3886488423471306	17.699249468747393	-17.586925131976557
M	2.4039166248721084	18.48497705127359	-16.205545368546066
I	2.7821085186352903	21.158651581072228	-16.02539601108492
C	0.9018844679203237	22.9933140805848	-16.813714758123968
G	-1.2435833474455062	21.644802508745165	-16.158626780268147
L	0.7113341222966127	24.999838596173777	-14.098818180811667
D	-0.6069791745756632	28.00279279988386	-12.766670448713253
L	-0.37653070720191373	30.811805842835263	-11.800406425533234
R	0.11972505228799335	34.78072282335002	-12.703622826551525
P	-1.376841525066336	34.38304937540194	-10.731726491594053
Y	-0.17266813887850319	33.50430081959388	-8.787297150095032
L	2.432842987060548	36.73825390651224	-9.938585082180353
G	1.455716115003531	37.88071820444047	-8.312833964594432
H	1.4737322824920902	36.784104458505496	-5.542875128487571
V	4.129933359420395	35.220891741082795	-5.729284835718772
T	5.567693971279278	37.501169241383806	-3.4948334841252944
V	8.768439147929554	36.390124276891925	-3.6081500304677014
P	12.146396666711038	37.445988534206634	-4.539022922140509
C	12.591708821582767	36.98368746959892	-6.710513548712525
H	13.447614917334562	37.448139441361704	-9.938078828536984
I	13.825466126759537	37.09761006262701	-12.744310051930636
I	15.510707901351097	36.440044157026534	-16.19439492135795
Q	16.020093268580165	36.07691545108283	-20.083244391637667
S	15.287552520186324	36.43487516703438	-23.840064027868884
S	15.271580367280523	37.41756451802783	-25.859892117165497
N	13.43513385692218	36.66411345964642	-26.4103371692787
D	12.73924205886824	33.87610832859697	-25.538912865535245
I	10.943513387666854	31.553481565569122	-28.056925209443392
M	9.714305180074517	30.182262125358342	-26.896769802910473
V	8.747337549234533	31.54501432007757	-24.250665648953547
P	6.05949443792543	33.42571292253169	-23.66826184269454
V	7.695160202102037	37.0052288885702	-23.282044055183924
A	6.229148595837309	38.881330957551114	-23.060965422500743
V	5.423608487494074	35.73166706367755	-21.041883790198128
G	8.312954874074236	36.512487912558925	-18.300955081679643
E	7.257606207029972	41.10790217969807	-18.435044586131458
Y	4.834325113550998	39.30395186920802	-17.723903965772
L	6.3180021048885635	38.0319794281738	-14.800622560042758
R	7.949957554275471	40.67965721529845	-13.639824353084883
K	6.170002505150774	42.678434185605376	-13.266694509061681
N	4.588040497399616	40.15056460439432	-11.322067009672306
L	6.691099675706039	40.639848106619084	-9.432622971106404
G	7.718396392865488	42.379253774596165	-6.737540032599682
G	10.033123115261947	42.538051418900025	-5.289521104745255
P	11.082810185678458	41.30507277528385	-7.885558686243862
S	13.187534056610398	42.160761977987065	-9.5093590238676
V	15.292956990588314	41.73901212267293	-12.031872593088574
V	16.768511886910474	41.29400795848075	-15.007755833399337
E	18.836161130771917	41.22273530977027	-17.82658598410763
V	19.36392404766039	39.7750834326375	-20.41742433244329
M	21.01972089617703	38.92599024173369	-22.474322013910605
P	21.286655360946487	38.52511034381976	-25.378945455188394
T	21.74422786222181	36.914300446247935	-26.739472492602815
E	20.83278846527974	33.749041435790325	-26.34848658882477
G	18.7783762705241	30.98018818688122	-28.011921778498795
H	16.55707515072544	28.25994860441888	-24.40539915896531
L	18.660490642273526	28.584424779741443	-22.369152635933144
P	20.09456424658404	28.91812090592221	-20.465828788350077
H	21.7225759594467	28.24345358283465	-19.104844892054636
L	23.159835250204885	28.22470751488383	-20.72232536585451
S	23.699428059057418	30.07397249940272	-21.282724122877426
M	24.27094937919758	31.97404168014815	-20.56442221673319
P	26.721503338994097	30.827840530256758	-17.116904345348573
E	28.21669470855725	34.071353150413216	-16.171264155617067
V	25.533623513759625	35.79804834659542	-16.10212584494833
T	23.691467479566903	33.812801173184816	-14.788122214214406
I	26.45396954217617	33.42684487815121	-11.390852096514195
P	26.796189715413554	35.410613959245	-11.069317429830402
V	23.354817750672886	35.70783084854331	-11.07024516789313
V	23.051833754075215	32.67730330893424	-8.384689560402952
L	25.650963435133782	34.99504957910008	-6.040125250780962
R	25.23867490696597	36.559873202141446	-6.111052376658549
H	21.672320753763245	35.01584543141125	-5.126949903278902
I	22.711115387488405	33.16177360040282	-2.859510637157463
R	24.91286594758621	36.45221116269066	-1.5385035612164675
Q	24.05483389843896	38.19550554925035	-1.4018166295041912
D	22.70852906182965	39.02547306603249	-0.1596437174476968
I	22.899974071664097	37.31662482741765	0.9219714948802942
T	24.832405305466565	38.078960447043585	2.9017744855154195
D	23.765081442511924	38.8485504771473	5.216239465619994
