268
model_2_output_casp13_predicted_reconstructed_5z82
S	3.060485208496191	15.791417995529772	4.525780518246567
I	1.6907013321195024	18.499031886519358	5.205269386581136
G	3.399008706854733	18.934766254655536	3.537644827344945
L	4.865639825383793	19.48761747601765	3.2975844768177076
A	4.134836140018786	18.78687939260474	4.897233086160654
H	3.404856961710358	17.878395037977437	3.892450584347568
N	4.665394071367322	17.247771238422203	3.199488508940469
V	6.971373660690359	16.776884131212377	2.488498072330728
T	10.647731830308691	15.19398842861148	2.3784750876583836
I	13.751917685419551	14.493692609381949	2.2387970152644776
L	16.55743673355468	14.683647788544212	2.7025207309231867
G	19.90704498935283	15.949899229216173	3.247793530875601
S	22.719057859856555	17.97315900508821	3.5817285162842722
G	25.01409659467599	21.420990961605057	3.2494306951387912
E	26.495161112914374	23.287303503839414	3.3313173070656212
T	26.12983652236351	25.19237363953362	2.2301289849235104
T	23.80322948821332	24.732724985761788	-0.44974218258100507
V	21.21764807797768	23.994649672265012	-2.400151438049173
V	18.2589613858348	22.532702206172562	-4.195534123624713
L	16.173986184345324	21.284658298456694	-6.123222366358972
G	14.081224616929422	20.033289558646175	-8.66732789305641
H	12.646102491194542	19.60191544405358	-10.92880158468443
G	10.497239560381988	20.729174768265292	-13.166107432843425
Y	7.480642452720782	18.90717801360984	-15.147111380518277
G	6.278394752137992	17.36893094344915	-14.374659776657854
T	8.480843989767765	17.454547380400683	-12.603138297337956
D	9.629057846718755	16.495710768451033	-10.332119642978558
Q	12.772608041448693	15.85075898886249	-8.049546022633553
S	14.113684489462132	13.213737181865623	-8.506426132427872
V	16.20835725609901	13.881192655692661	-11.664550338328599
W	18.768951371062776	15.200064590433971	-11.798596399552476
K	20.799720404684674	12.681849878582417	-9.756307763118512
L	24.00937839475296	13.124369851176693	-11.60294091447906
L	24.59518319856909	15.0840579038521	-11.037157791751806
V	24.04453269776053	15.123812819792464	-8.43107833286384
P	26.77499330869216	12.111873891460652	-6.185370981622967
Y	28.257166607122457	14.537396428745222	-6.903417833372616
L	27.117650641483	16.36344222529955	-5.889244339944408
V	26.907799776079617	14.854786498378294	-2.2522545735521735
D	28.21605694543046	14.945125587311235	0.0062858534956227174
D	29.36941362814066	17.40165949971612	-0.5726193265905959
Y	26.148916527258024	19.17686682379965	-0.6993938697594135
K	22.78396170162548	19.27947855889249	0.7015334749036413
V	19.471006339097197	19.00974962996381	-1.1385928958871627
L	16.2357382728322	20.429275971766835	-1.0168804665574882
L	13.623653444203123	19.004305680843682	-2.5822468019671287
Y	10.87197666618468	19.43355959255252	-3.780325960031261
D	7.815674372371368	19.58049165550475	-5.652033608684572
H	5.343742928245956	21.760828671370774	-6.827661774183445
M	1.8041572034298348	22.57181960438788	-8.068171939138239
G	0.1615930155304941	21.892879973802284	-8.948934476302858
A	2.2893303229185733	18.82699851190947	-9.92129433036948
G	4.203954078953764	14.907883019252735	-8.791531710946796
T	2.907722676532318	12.564725239297424	-7.6638089946810855
T	3.506307451061348	14.5781896416929	-5.635176538110866
N	-0.24817183155077238	14.238500734190742	-5.848361083197739
P	-2.500803803516556	15.136779320863258	-5.671217703792758
D	-4.68697765863136	16.093417346625422	-5.745121042160962
Y	-3.5621502779796828	17.1933418113449	-6.407197993182887
F	-3.2547821670935946	19.37485609882168	-7.289318442809997
D	-4.631343488003857	23.018800341643043	-8.882542111188755
F	-4.534506112096789	25.66240987046989	-8.721498965308609
D	-5.447854241690369	28.08595206616799	-8.987951977018714
R	-2.8407422017885136	28.108670102231052	-8.83702975886607
Y	0.31407146269497765	28.93898881134031	-9.275314016417354
S	-1.3741330262855058	31.01036490812844	-11.282094307668146
S	1.1814998228938407	32.09569285788863	-11.536911128167072
L	4.262923540114128	32.08961855948863	-11.677323756052537
E	3.9683616807232074	33.22508134120488	-9.356162425216162
G	3.9599939453040776	29.636648706334213	-7.432546141453287
Y	6.8816277624598925	27.91820258520961	-7.495667587067706
S	7.9088204255217756	30.799727004720843	-6.3270125524656216
Y	6.5083462872300455	30.054063257578846	-3.916786957714484
D	6.647366733046312	26.881847131323603	-2.80171189052648
L	9.267758151164106	26.583839106713356	-2.9623967216842573
I	8.919212586237975	29.755740469240155	-1.352160895830563
A	7.149386582657976	27.36937504885606	0.9793041024013611
I	9.180316743727378	24.942110220686224	1.1645550592333613
L	11.98393661183567	27.488700867854604	1.5715275734138814
E	9.67149455960069	28.81223838930401	3.9547546356683867
E	9.108565760393926	25.847540597505304	5.574969910078767
F	11.828598846913211	24.24112380825438	6.114075000350624
Q	13.84247729039695	26.36694497331869	6.677386240405809
V	15.676197130501889	27.047419934231147	3.4327507737158918
S	17.75226249450426	30.000609000464372	3.250552636248205
K	19.047035337526324	29.32032318411413	0.9335478574300211
C	19.0565558441355	28.098664726232343	-1.8006281043073429
I	19.324603018225446	28.64257740702344	-4.1825689985314565
Y	18.04630346222692	26.587008615171854	-6.287293387246612
V	18.09592542961903	25.3713241962829	-9.233964231931902
G	15.937611959503059	24.955360919198643	-12.978851640168099
H	15.783174433407973	24.02390433939833	-15.955469973877902
S	13.24247852185267	25.189288557050947	-18.813462579932157
M	10.056742501657439	25.54795427388619	-18.380978305738772
S	12.13137535909317	26.36339429370148	-15.386877915773105
S	13.885960243425117	27.27145029230203	-16.003370782892233
M	10.535321463649424	29.36450704114243	-16.2690093859688
A	10.050336333489927	28.451134183212027	-12.485367712891167
A	14.202121189123455	29.085404795706324	-11.215734399680757
A	13.905394962045168	32.2306244598673	-13.596639285500656
V	11.199202821059243	33.89676243383123	-11.9543887693366
A	10.263686548645904	32.35523632800487	-9.131139339849032
S	14.753924890090708	34.5489549592606	-9.628515942144993
I	13.237945119719782	36.707678225122336	-9.83293365416927
F	11.364870366546958	37.045598002549106	-7.934921964208597
R	12.397862425822298	36.045210899631314	-4.97672879446786
P	15.601990103857252	36.925489064242306	-5.272457139529255
D	15.72147681876923	36.08310350155464	-1.7952964721234288
L	16.36283376395721	33.20551888052436	-1.6883352711095085
F	18.257435105246003	32.17229410106333	-3.3907598767014715
H	22.568566655434957	32.08006667017861	-4.688154380170097
K	23.065936530161245	30.73547261784175	-7.7037287382301844
L	21.515702933058797	29.484385921927448	-9.626945582973079
V	21.363532423761264	28.153427295266628	-13.016770646256992
M	19.740547656909822	27.55067653925599	-15.226328550402211
I	18.640012473963445	25.91385613152077	-17.890487877140437
S	16.171037366083173	25.54054643649184	-20.724558916529418
P	14.931943303488167	27.838324355174272	-20.373900322586405
T	13.211414490769343	30.05261391829861	-20.215535134185558
P	11.518760879832433	31.62236066795312	-20.637678419708596
R	9.948288499129497	32.672205085769136	-22.34308069188736
L	9.61014270140715	32.08546803969453	-23.12027007747456
I	6.934208566653459	34.369062851924056	-24.7129774184516
N	3.7054339637511795	36.1122565558326	-25.062129461394946
T	1.226519333098441	37.8840587547036	-26.326577514327433
E	-0.6582595136384057	39.927362134721285	-27.568848591239497
E	-0.09768196540223606	41.01423345401372	-29.49902859247338
Y	2.8295320132428383	37.44686403398844	-28.25809955504039
Y	2.5516587459278632	34.5312204707481	-27.459046015778114
G	2.8119175120704405	32.27345029042077	-27.547623866696185
G	4.155871570882837	30.659529029695268	-26.29930964463087
F	2.3609202678349046	32.00194835356562	-28.000208822224863
E	-0.20745069695897023	33.93403378330494	-29.70766240555527
Q	-1.4067537576484472	33.20285890197833	-32.16404373188466
K	-1.8902502610754688	32.699723895902146	-33.475274711943186
V	0.11626820043138153	31.711197863931535	-31.809151992367852
M	1.4784004182990547	31.739775153944773	-30.936623450859656
D	-0.8831821709025327	31.259523316041395	-34.29764155746237
E	-0.9022244395464458	27.86336108382349	-35.65707813580545
T	1.9289303773475108	26.52074217089837	-32.54394234981557
L	1.3771747566864647	25.496371760592012	-33.712003042540175
R	-0.20572702177395108	23.05244482631886	-36.62487576489915
S	0.6067453803422769	20.538042417052885	-35.296078516401195
L	2.8237397167492393	19.97952825670562	-32.42233656942429
D	1.938723277992576	18.854298013668064	-34.35075441552553
E	1.053081822671185	18.603853169035403	-35.30178975306556
N	2.459095514978218	17.381864663015744	-32.03423598212403
F	3.752635752013031	17.959514168360826	-30.50034096330679
K	3.012866547063803	16.092496925366852	-33.04827083197401
S	2.060221493343109	15.993311663972671	-33.68883127882229
L	4.037474160073126	16.977801408803582	-31.19831608789189
S	4.443853547609267	17.054199901823587	-31.017941926926028
L	4.360230099861772	16.45882960650991	-32.384344120655626
G	5.322090547234742	17.152528422095166	-32.93005205925442
T	6.538188423746551	17.70015341277081	-30.688923424541073
A	7.609459475670727	18.06687156626765	-31.389174404818778
P	8.632217168925202	17.889975905415398	-33.118847920747086
L	9.914004953471963	17.609356064544876	-31.877702205459826
L	10.553628804688724	16.902909690128745	-29.53427487781292
L	11.988447010178263	17.343649452064383	-31.100215149017693
A	13.887614792339878	15.632546717563054	-32.32924768192707
C	14.76903681656007	13.304290232703277	-30.950595507459
D	16.13251254405482	8.731843891213215	-29.057396614928578
L	15.349795169551319	7.821652159087762	-27.120821993900634
E	15.396714089496124	4.837412846598756	-27.81900589899667
S	16.234050363236218	6.461556873250792	-27.322548277602394
A	16.174223100672542	6.604989019512665	-26.44643835119233
A	15.81967722090995	9.101610245386896	-25.228097570624374
M	14.761294246129555	11.825261558730103	-24.370565774801673
Q	13.744165800026243	10.612384631999042	-23.912180596367115
E	13.019332497121109	10.782851261371393	-22.650650592424245
Y	11.859784954602722	13.897085398293083	-21.117969377389446
C	10.12501188033701	14.163270372562822	-20.476718901930127
R	9.045237157476365	12.686956082729706	-21.011289351181855
T	8.778080614751	15.088925538049468	-20.1117244450922
L	7.817780696592598	16.505699978537407	-19.868874988657467
F	6.58117936062589	14.753328817830877	-21.100219732566785
N	5.033578301839173	14.188225248674192	-20.740977983358036
M	2.8776149674869327	15.502174315494752	-20.894814737784674
R	0.01998419289776443	15.535916739438218	-21.785846642522365
P	-0.5554336370794299	16.44151901056221	-21.286417926719697
D	-1.5778792403381416	16.588605969459024	-20.21000691089004
I	0.4643480048062383	19.27498267797143	-20.220461583180914
A	2.7785485772909	21.32294692125032	-21.09716486665045
C	0.6952184380077266	20.95920612665829	-20.94982295253157
C	0.5425529081175942	21.461706385619355	-19.79620050308621
I	3.6778284478499472	24.19857620474357	-19.690548340268123
T	4.451669978776744	25.632265325868374	-20.208972477256502
R	2.1209472761144035	25.71220966572636	-19.88837830357181
M	3.8363458676561883	26.684530231547203	-19.71582868128052
I	6.076968853575947	28.54944241053353	-19.20599292552022
C	5.15487634210253	30.12447256365254	-19.786460230661795
G	5.436357631678198	32.18242008862136	-20.171793195697802
L	7.141267727868255	34.75000259593041	-19.105742954438774
D	8.475747296935573	38.15132582042814	-18.438450494968976
L	10.914654848340021	38.48106170857756	-17.076076807562394
R	12.125271510363715	41.775223560072064	-15.508250894296339
P	11.55338329821034	42.41746846628979	-13.193241663801405
Y	12.467090841449808	41.35712034080516	-12.971216382502547
L	15.260245853642559	39.824450871907814	-12.772110752789576
G	14.58310199764345	43.514433112569606	-10.575590235713538
H	15.057070967501431	42.718463430133454	-8.87266906794355
V	16.792641891657365	39.87474309093849	-9.229378832136515
T	19.325771485677713	40.58293513719302	-7.446587726541845
V	21.582937095015147	37.13223483987043	-8.422605103087093
P	23.944393541518274	36.051130251522885	-10.231243830569662
C	23.151714263221496	34.81314945050862	-12.71601166020605
H	24.015665301100885	33.12759769457079	-14.87091961078843
I	23.240514186027696	30.69614972231951	-17.74740695653962
I	23.71027919066902	28.01823096534373	-20.16012499510152
Q	23.180343265016468	26.048866141000552	-22.818293257641873
S	24.507165708193007	23.838459127780514	-24.966784520695555
S	25.195313557179297	22.23137427889128	-26.789406922006748
N	24.579759879641095	21.288138898124664	-27.693293568702988
D	23.68329599880923	21.35993993646972	-28.811345010779085
I	22.17369061300092	21.230345315590924	-28.93088419413521
M	18.166097066308552	23.397757434949956	-29.520860384096636
V	17.37557739011489	26.209379442641108	-28.37768445139474
P	18.068458122660154	28.904513659782847	-30.045193657560887
V	20.077227240665685	29.48734620911871	-28.9636400361427
A	18.891699073364492	33.80719997488451	-28.221809718063817
V	17.76058556013431	33.3192767316282	-26.549315767132928
G	19.005260241421677	33.79873679327649	-24.25049951476897
E	20.537272112762682	36.781863145777116	-24.964921965383834
Y	17.50261862326393	39.14483446155812	-25.241168007210135
L	17.851356686398663	38.05535897706784	-21.773513211166303
R	20.133488481028383	38.79232439119251	-21.345900764870372
K	18.363275231657454	42.67379649099446	-22.339554473334662
N	16.462799911492496	42.68786759061339	-20.415659371072294
L	15.934512164291355	41.556901649820254	-17.081747365906683
G	17.666865694760276	44.95099644683354	-15.774186880234955
G	19.809862440794006	43.093404045127016	-14.234051535484635
P	22.58360030842447	40.2293038991397	-14.83768442475004
S	24.564878293432052	37.20809560431331	-15.885160535767145
V	25.07998424587455	33.60468231654598	-17.878048635719715
V	24.212102547702557	31.751124440448674	-20.048406938570608
E	25.296972552206057	28.076979525299336	-21.474388462651856
V	24.14988192820968	25.39788164280933	-23.520411617779722
M	24.902219911271477	22.007502291076797	-25.236151939787895
P	23.91244830278101	18.94620930697047	-28.34128110831524
T	22.124562658511095	17.702661284473272	-27.572541796322838
E	20.496754611693305	16.999498026626952	-27.378720342429304
G	19.640828158646194	16.702404603670374	-27.092551620151934
H	18.549240226984928	15.894497405304891	-25.780153071456926
L	19.43687379021428	14.825293968249904	-23.602777033945998
P	19.413618579146256	14.829930695587395	-21.87978782111691
H	19.25275660932688	14.43201286913351	-21.11682686339413
L	21.036314754460165	11.946696066006119	-22.00246968948774
S	21.950500395677295	11.435641473906017	-22.216841588271123
M	22.883202274666758	11.264394000259381	-19.897712931939015
P	23.048731537308452	11.857148849187553	-17.300534763969406
E	25.16027569801806	11.207235312500773	-15.753565510854633
V	25.064497756468086	13.28409203352992	-17.35440086206049
T	23.436731455274348	16.373995146942107	-16.33700686417227
I	24.906562139843174	15.343038292280006	-12.637930522371935
P	27.646866970872452	15.977858116722766	-12.726229913542436
V	26.766378054985253	19.284694548118054	-13.724946270317323
V	24.378522391947577	21.570203940195714	-12.104099081079951
L	27.75880970978328	20.517198331939312	-8.8275587211914
R	29.578357971740054	22.072505574264532	-9.68517595769999
H	26.787510865829418	25.926571635006816	-9.07784072025862
I	26.806389168890995	27.285703725771253	-6.716121879860021
R	28.722371737279822	26.940856075809478	-5.345608503907572
Q	29.46476069600402	28.49168187250975	-4.536826291555872
D	28.73211031944141	32.710632918842464	-6.541183640888153
I	29.809318664575844	35.73163026808386	-6.452625643996024
T	29.40455007532404	38.92103035708645	-5.719898236138812
D	30.643014770527234	40.67031366425414	-4.599536369473844
